tests/data/power_flow/automatic-tap-regulator/link-before-transformer-any-valid/sym_output.json
{
  "version": "1.0",
  "type": "sym_output",
  "is_batch": false,
  "attributes": {},
  "data": {
    "node": [
      {"id": 1, "energized": 1, "u_pu": 1.0499996367574587, "u": 10499.996367574586, "u_angle": -1.0190681623422179e-08, "p": 491.30634141282547, "q": 3783.9375183859529},
      {"id": 2, "energized": 1, "u_pu": 1.0499996367574587, "u": 10499.996367574586, "u_angle": -1.0190681623422179e-08, "p": 0, "q": 0},
      {"id": 3, "energized": 1, "u_pu": 1.0253583186218289, "u": 410.14332744873155, "u_angle": 0.5236172616167355, "p": 0, "q": 0}
    ],
    "transformer": [
      {"id": 5, "energized": 1, "loading": 0.0095392495329039446, "p_from": 491.30634141282536, "q_from": 3783.9375183859529, "i_from": 0.20980915013254575, "s_from": 3815.6998131615778, "p_to": 1.2440470421952479e-09, "q_to": -3.3331675180354572e-10, "i_to": 1.8129866073473579e-12, "s_to": 1.2879258908134474e-09}
    ],
    "transformer_tap_regulator": [
      {"id": 6, "energized": 1, "tap_pos": 3}
    ],
    "source": [
      {"id": 7, "energized": 1, "p": 491.30634141282547, "q": 3783.9375183859529, "i": 0.20980915013254575, "s": 3815.6998131615778, "pf": 0.12875917013129587}
    ]
  }
}